Version 4
SHEET 1 1120 1180
WIRE -784 -16 -800 -16
WIRE -144 -16 -784 -16
WIRE -128 -16 -144 -16
WIRE 160 -16 -128 -16
WIRE 464 -16 160 -16
WIRE 480 -16 464 -16
WIRE -128 48 -128 -16
WIRE 464 48 464 -16
WIRE -144 96 -144 -16
WIRE -128 96 -144 96
WIRE 144 96 -80 96
WIRE 416 96 144 96
WIRE 480 96 480 -16
WIRE 480 96 464 96
WIRE -128 256 -128 144
WIRE 144 256 144 96
WIRE 144 256 -128 256
WIRE 464 400 464 144
WIRE 832 400 464 400
WIRE -784 432 -784 -16
WIRE -800 480 -800 -16
WIRE -784 480 -800 480
WIRE -576 480 -736 480
WIRE -128 640 -128 256
WIRE 464 640 464 400
WIRE -176 688 -224 688
WIRE 176 688 -128 688
WIRE 464 688 176 688
WIRE 560 688 512 688
WIRE -128 784 -128 736
WIRE 176 784 -128 784
WIRE 464 784 464 736
WIRE 464 784 176 784
WIRE -784 880 -784 528
WIRE -576 880 -576 480
WIRE -576 880 -784 880
WIRE -784 992 -784 880
WIRE 176 992 176 784
WIRE -784 1040 -800 1040
WIRE -576 1040 -576 880
WIRE -576 1040 -736 1040
WIRE 128 1040 -576 1040
WIRE 192 1040 176 1040
WIRE -800 1136 -800 1040
WIRE -784 1136 -784 1088
WIRE -784 1136 -800 1136
WIRE -192 1136 -784 1136
WIRE 176 1136 176 1088
WIRE 176 1136 -192 1136
WIRE 192 1136 192 1040
WIRE 192 1136 176 1136
FLAG -224 688 V+
FLAG 560 688 V-
FLAG 160 -16 Vdd
FLAG 176 688 Vss
FLAG -192 1136 Vss
FLAG 832 400 Vo
FLAG -1248 144 Vdd
IOPIN -1248 144 In
FLAG -1248 176 Vss
IOPIN -1248 176 In
FLAG -1248 208 V+
IOPIN -1248 208 In
FLAG -1248 240 V-
IOPIN -1248 240 In
FLAG -1248 272 Vo
IOPIN -1248 272 Out
DATAFLAG 688 400 ""
DATAFLAG 176 784 ""
DATAFLAG -656 880 ""
DATAFLAG -48 1136 ""
DATAFLAG -96 -16 ""
DATAFLAG -128 416 ""
DATAFLAG 160 96 ""
DATAFLAG -192 688 ""
DATAFLAG 528 688 ""
SYMBOL pmos_t18 416 48 R0
SYMATTR InstName M1
SYMATTR Value2 l={Ln} w=5u
SYMATTR SpiceLine ""
SYMATTR SpiceModel ""
SYMATTR Value TSMC180nmP
SYMBOL pmos_t18 -736 432 M0
SYMATTR InstName M2
SYMATTR Value2 l={Ln} w=6u
SYMATTR SpiceLine ""
SYMATTR SpiceModel ""
SYMATTR Value TSMC180nmP
SYMBOL nmos_t18 -176 640 R0
SYMATTR InstName M3
SYMATTR Value2 l={Ln} w=5u
SYMATTR SpiceLine ""
SYMATTR SpiceModel ""
SYMATTR Value TSMC180nmN
SYMBOL nmos_t18 512 640 M0
SYMATTR InstName M4
SYMATTR Value2 l={Ln} w=5u
SYMATTR SpiceLine ""
SYMATTR SpiceModel ""
SYMATTR Value TSMC180nmN
SYMBOL nmos_t18 128 992 R0
SYMATTR InstName M5
SYMATTR Value2 l={Ln} w=11u
SYMATTR SpiceLine ""
SYMATTR SpiceModel ""
SYMATTR Value TSMC180nmN
SYMBOL nmos_t18 -736 992 M0
SYMATTR InstName M6
SYMATTR Value2 l={Ln} w=10u
SYMATTR SpiceLine ""
SYMATTR SpiceModel ""
SYMATTR Value TSMC180nmN
SYMBOL pmos_t18 -80 48 M0
SYMATTR InstName M7
SYMATTR Value2 l={Ln} w=5u
SYMATTR SpiceLine ""
SYMATTR SpiceModel ""
SYMATTR Value TSMC180nmP
TEXT -1856 152 Left 2 !.lib tsmc180nmcmos.lib\n.param Ln=180n
TEXT -1856 208 Left 2 !.op\n;ac DEC 59 10m 10G
TEXT -1856 264 Left 2 !.dc V2 -1.8 1.8 0.1
TEXT -1856 96 Left 2 ;Single Ended Transconductance\n======================
