Version 4
SHEET 1 2708 1228
WIRE -1328 -560 -1344 -560
WIRE -768 -560 -1328 -560
WIRE -752 -560 -768 -560
WIRE -448 -560 -752 -560
WIRE -160 -560 -448 -560
WIRE -144 -560 -160 -560
WIRE 960 -560 -144 -560
WIRE 976 -560 960 -560
WIRE 1536 -560 976 -560
WIRE 1552 -560 1536 -560
WIRE -752 -512 -752 -560
WIRE -160 -512 -160 -560
WIRE 960 -512 960 -560
WIRE 1552 -512 1552 -560
WIRE -768 -464 -768 -560
WIRE -752 -464 -768 -464
WIRE -656 -464 -704 -464
WIRE -208 -464 -656 -464
WIRE -144 -464 -144 -560
WIRE -144 -464 -160 -464
WIRE 912 -464 832 -464
WIRE 976 -464 976 -560
WIRE 976 -464 960 -464
WIRE 1536 -464 1536 -560
WIRE 1552 -464 1536 -464
WIRE 1680 -464 1600 -464
WIRE -160 -352 -160 -416
WIRE 32 -352 -160 -352
WIRE 608 -352 32 -352
WIRE 832 -320 832 -464
WIRE 960 -320 960 -416
WIRE 960 -320 832 -320
WIRE 1552 -320 1552 -416
WIRE 1616 -320 1552 -320
WIRE 1680 -320 1680 -464
WIRE 1680 -320 1616 -320
WIRE 608 -224 608 -352
WIRE -752 -208 -752 -416
WIRE 32 -208 -752 -208
WIRE 176 -208 32 -208
WIRE -1328 -160 -1328 -560
WIRE -1344 -112 -1344 -560
WIRE -1328 -112 -1344 -112
WIRE -1104 -112 -1280 -112
WIRE -752 -80 -752 -208
WIRE -160 -80 -160 -352
WIRE 960 -80 960 -320
WIRE 1552 -80 1552 -320
WIRE -800 -32 -864 -32
WIRE -448 -32 -752 -32
WIRE -160 -32 -448 -32
WIRE -32 -32 -112 -32
WIRE 608 -32 608 -144
WIRE 912 -32 608 -32
WIRE 1264 -32 960 -32
WIRE 1552 -32 1264 -32
WIRE 1680 -32 1600 -32
WIRE 608 64 608 -32
WIRE -752 80 -752 16
WIRE -448 80 -752 80
WIRE -160 80 -160 16
WIRE -160 80 -448 80
WIRE 960 80 960 16
WIRE 1264 80 960 80
WIRE 1552 80 1552 16
WIRE 1552 80 1264 80
WIRE -1328 160 -1328 -64
WIRE -1104 160 -1104 -112
WIRE -1104 160 -1328 160
WIRE 176 224 176 -208
WIRE 608 224 608 144
WIRE 608 224 176 224
WIRE -1328 336 -1328 160
WIRE -448 336 -448 80
WIRE 1264 336 1264 80
WIRE -1328 384 -1344 384
WIRE -1104 384 -1104 160
WIRE -1104 384 -1280 384
WIRE -912 384 -1104 384
WIRE -496 384 -912 384
WIRE -432 384 -448 384
WIRE 1216 384 1008 384
WIRE 1280 384 1264 384
WIRE -1344 512 -1344 384
WIRE -1328 512 -1328 432
WIRE -1328 512 -1344 512
WIRE -880 512 -1328 512
WIRE -448 512 -448 432
WIRE -448 512 -880 512
WIRE -432 512 -432 384
WIRE -432 512 -448 512
WIRE 1264 512 1264 432
WIRE 1264 512 -432 512
WIRE 1280 512 1280 384
WIRE 1280 512 1264 512
FLAG -2240 -432 Vdd
IOPIN -2240 -432 In
FLAG -2240 -400 Vss
IOPIN -2240 -400 In
FLAG -2240 -368 Vi+
IOPIN -2240 -368 In
FLAG -2240 -336 Vi-
IOPIN -2240 -336 In
FLAG -2240 -304 Vcm
IOPIN -2240 -304 In
FLAG -2304 -272 Vo+
IOPIN -2304 -272 Out
FLAG -2288 -240 Vo-
IOPIN -2288 -240 Out
FLAG -448 -32 Vss
FLAG -448 -560 Vdd
FLAG -880 512 Vss
FLAG -864 -32 Vi+
FLAG -32 -32 Vi-
FLAG 32 -208 Vo-
FLAG 32 -352 Vo+
FLAG 1264 -32 Vss
FLAG 1680 -32 Vcm
FLAG 1616 -320 Vcmfb
FLAG -656 -464 Vcmfb
FLAG -912 384 Vnbias
FLAG 1008 384 Vnbias
DATAFLAG -1216 160 ""
DATAFLAG -304 -560 ""
DATAFLAG -464 -464 ""
DATAFLAG 160 -352 ""
DATAFLAG 160 -208 ""
DATAFLAG 960 -144 ""
DATAFLAG 1552 -144 ""
DATAFLAG 1344 -32 ""
DATAFLAG -384 -32 ""
DATAFLAG 1104 384 ""
DATAFLAG -832 -32 ""
DATAFLAG -64 -32 ""
DATAFLAG -752 -320 "Id(M3)"
DATAFLAG -160 -304 "Id(M4)"
DATAFLAG 960 -336 "Id(M8)"
DATAFLAG 1552 -352 "Id(M7)"
DATAFLAG 1264 240 "Id(M11)"
DATAFLAG 1280 80 ""
DATAFLAG -448 80 ""
DATAFLAG -448 224 "Id(M5)"
DATAFLAG 752 -32 ""
DATAFLAG 1616 -32 ""
DATAFLAG -1328 64 "Id(M6)"
SYMBOL pmos_t18 -208 -512 R0
SYMATTR InstName M1
SYMATTR Value2 l={L} w=9u
SYMATTR SpiceLine ""
SYMATTR SpiceModel ""
SYMATTR Value TSMC180nmP
SYMBOL pmos_t18 -704 -512 M0
SYMATTR InstName M2
SYMATTR Value2 l={L} w=9u
SYMATTR SpiceLine ""
SYMATTR SpiceModel ""
SYMATTR Value TSMC180nmP
SYMBOL nmos_t18 -800 -80 R0
SYMATTR InstName M3
SYMATTR Value2 l={L} w=9u
SYMATTR SpiceLine ""
SYMATTR SpiceModel ""
SYMATTR Value TSMC180nmN
SYMBOL nmos_t18 -112 -80 M0
SYMATTR InstName M4
SYMATTR Value2 l={L} w=9u
SYMATTR SpiceLine ""
SYMATTR SpiceModel ""
SYMATTR Value TSMC180nmN
SYMBOL nmos_t18 -496 336 R0
SYMATTR InstName M5
SYMATTR Value2 l={L} w=11u
SYMATTR SpiceLine ""
SYMATTR SpiceModel ""
SYMATTR Value TSMC180nmN
SYMBOL nmos_t18 -1280 336 M0
SYMATTR InstName M6
SYMATTR Value2 l={L} w=10u
SYMATTR SpiceLine ""
SYMATTR SpiceModel ""
SYMATTR Value TSMC180nmN
SYMBOL pmos_t18 1600 -512 M0
SYMATTR InstName M7
SYMATTR Value2 l={L} w=10u
SYMATTR SpiceLine ""
SYMATTR SpiceModel ""
SYMATTR Value TSMC180nmP
SYMBOL pmos_t18 912 -512 R0
SYMATTR InstName M8
SYMATTR Value2 l={L} w=10u
SYMATTR SpiceLine ""
SYMATTR SpiceModel ""
SYMATTR Value TSMC180nmP
SYMBOL nmos_t18 912 -80 R0
SYMATTR InstName M9
SYMATTR Value2 l={L} w=9u
SYMATTR SpiceLine ""
SYMATTR SpiceModel ""
SYMATTR Value TSMC180nmN
SYMBOL nmos_t18 1600 -80 M0
SYMATTR InstName M10
SYMATTR Value2 l={L} w=9u
SYMATTR SpiceLine ""
SYMATTR SpiceModel ""
SYMATTR Value TSMC180nmN
SYMBOL nmos_t18 1216 336 R0
SYMATTR InstName M11
SYMATTR Value2 l={L} w=11u
SYMATTR SpiceLine ""
SYMATTR SpiceModel ""
SYMATTR Value TSMC180nmN
SYMBOL res 592 -240 R0
SYMATTR InstName R1
SYMATTR Value 1Meg
SYMBOL res 592 48 R0
SYMATTR InstName R2
SYMATTR Value 1Meg
SYMBOL pmos_t18 -1280 -160 M0
SYMATTR InstName M12
SYMATTR Value2 l={L} w=1u
SYMATTR SpiceLine ""
SYMATTR SpiceModel ""
SYMATTR Value TSMC180nmP
TEXT -2304 -520 Left 2 !.lib tsmc180nmcmos.lib\n.param L =180n
TEXT -2304 -576 Left 2 ;DG356: Differential Output Transconductance Amplifier\n=====================================
